/*--------------------------------*- C++ -*----------------------------------*\
  =========                 |
  \\      /  F ield         | OpenFOAM: The Open Source CFD Toolbox
   \\    /   O peration     | Website:  https://openfoam.org
    \\  /    A nd           | Version:  11
     \\/     M anipulation  |
\*---------------------------------------------------------------------------*/
FoamFile
{
    version     2.0;
    format      ascii;
    class       dictionary;
    location    "constant";
    object      physicalProperties;
}
// * * * * * * * * * * * * * * * * * * * * * * * * * * * * * * * * * * * * * //

Am             [0 2 -1 0 0 0 0]  0;
Beta           [0 0 0 0 0 0 0]  0;
rho            [1 -3 0 0 0 0 0]  1000;
hDry           [0 1 0 0 0 0 0] 0.001;
hDry2          [0 1 0 0 0 0 0] 0.00101;


// ************************************************************************* //
